  Page 1                                    Wed Mar 27 13:57:28 2024

  ******************************************************************
  *                           E P A N E T                          *
  *                   Hydraulic and Water Quality                  *
  *                   Analysis for Pipe Networks                   *
  *                         Version 2.2                            *
  ******************************************************************
  
  Analysis begun Wed Mar 27 13:57:28 2024

   
  Hydraulic Status:
  -----------------------------------------------------------------------
     0:00:00: Balanced after 4 trials
     0:00:00: Reservoir 9 is emptying
     0:00:00: Tank 2 is filling at 120.00 ft
   
     1:00:00: Balanced after 2 trials
   
     2:00:00: Balanced after 3 trials
   
     3:00:00: Balanced after 3 trials
   
     4:00:00: Balanced after 2 trials
   
     5:00:00: Balanced after 3 trials
   
     6:00:00: Balanced after 4 trials
   
     7:00:00: Balanced after 3 trials
   
     7:36:44: Balanced after 4 trials
     7:36:44: Tank 2 is closed at 150.00 ft
     7:36:44: Pipe 110 changed from open to temporarily closed
   
     8:00:00: Balanced after 2 trials
   
     9:00:00: Balanced after 2 trials
   
    10:00:00: Balanced after 2 trials
   
    11:00:00: Balanced after 2 trials
   
    12:00:00: Balanced after 2 trials
   
    13:00:00: Balanced after 2 trials
   
    14:00:00: Balanced after 2 trials
   
    15:00:00: Balanced after 2 trials
   
    16:00:00: Balanced after 2 trials
   
    17:00:00: Balanced after 2 trials
   
    18:00:00: Balanced after 2 trials
   
    19:00:00: Balanced after 2 trials
   
    20:00:00: Balanced after 2 trials
   
    21:00:00: Balanced after 1 trials
   
    22:00:00: Balanced after 2 trials
   
    23:00:00: Balanced after 2 trials
   
    24:00:00: Balanced after 1 trials
   
  Water Quality Mass Balance (mg)
  ================================
  Initial Mass:      7.47582e+006
  Mass Inflow:       7.37287e+006
  Mass Outflow:      3.02412e+006
  Mass Reacted:      6.03198e+006
  Final Mass:        5.79260e+006
  Mass Ratio:         1.00000
  ================================

  Analysis ended Wed Mar 27 13:57:28 2024
